
**** 04/05/22 12:46:35 ********* PSpice 9.2 (Mar 2000) ******** ID# 1 ********

 ** Profile: "SCHEMATIC1-bka"  [ g:\hiast\4th year\second term\\pspice\trgen-schematic1-bka.sim ] 


 ****     CIRCUIT DESCRIPTION


******************************************************************************




** Creating circuit file "trgen-schematic1-bka.sim.cir" 
** WARNING: THIS AUTOMATICALLY GENERATED FILE MAY BE OVERWRITTEN BY SUBSEQUENT SIMULATIONS

*Libraries: 
* Local Libraries :
* From [PSPICE NETLIST] section of C:\Program Files\Orcad\PSpice\PSpice.ini file:
.lib "nom.lib" 

*Analysis directives: 
.TRAN  0 15m 0 100n SKIPBP 
.OPTIONS ABSTOL= 1.0n
.OPTIONS CHGTOL= 0.01n
.OPTIONS ITL4= 100
.OPTIONS RELTOL= 0.01
.OPTIONS VNTOL= 1.0m
.PROBE V(*) I(*) W(*) D(*) NOISE(*) 
.INC ".\trgen-SCHEMATIC1.net" 



**** INCLUDING trgen-SCHEMATIC1.net ****
* source TRGEN
R_R1         N00673 N01131  10k  
R_R2         N00673 N00637  8.2k  
R_R         N01131 N00756  1220  
C_C1         N00756 N00637  10n  
X_U3A         GND N00756 VCC+ VCC- N00637 TL082
V_V1         GND VCC- -15
X_U4A         N00673 GND VCC+ VCC- N01131 TL082
V_V3         VCC+ GND 15

**** RESUMING trgen-schematic1-bka.sim.cir ****
.END

**** 04/05/22 12:46:35 ********* PSpice 9.2 (Mar 2000) ******** ID# 1 ********

 ** Profile: "SCHEMATIC1-bka"  [ g:\hiast\4th year\second term\\pspice\trgen-schematic1-bka.sim ] 


 ****     Diode MODEL PARAMETERS


******************************************************************************




               X_U3A.dx        X_U3A.dy        X_U4A.dx        X_U4A.dy        
          IS  800.000000E-18  800.000000E-18  800.000000E-18  800.000000E-18 
          RS    1               1.000000E-03    1               1.000000E-03 
         CJO                   10.000000E-12                   10.000000E-12 


**** 04/05/22 12:46:35 ********* PSpice 9.2 (Mar 2000) ******** ID# 1 ********

 ** Profile: "SCHEMATIC1-bka"  [ g:\hiast\4th year\second term\\pspice\trgen-schematic1-bka.sim ] 


 ****     Junction FET MODEL PARAMETERS


******************************************************************************




               X_U3A.jx        X_U4A.jx        
               NJF             NJF             
         VTO   -1              -1            
        BETA  984.200000E-06  984.200000E-06 
          IS    2.500000E-12    2.500000E-12 



          JOB CONCLUDED

          TOTAL JOB TIME            9.41
