
**** 02/01/22 09:54:00 ********* PSpice 9.2 (Mar 2000) ******** ID# 1 ********

 ** Profile: "SCHEMATIC1-bka"  [ g:\hiast\4th year\second term\\trgen-schematic1-bka.sim ] 


 ****     CIRCUIT DESCRIPTION


******************************************************************************




** Creating circuit file "trgen-schematic1-bka.sim.cir" 
** WARNING: THIS AUTOMATICALLY GENERATED FILE MAY BE OVERWRITTEN BY SUBSEQUENT SIMULATIONS

*Libraries: 
* Local Libraries :
* From [PSPICE NETLIST] section of C:\Program Files\Orcad\PSpice\PSpice.ini file:
.lib "nom.lib" 

*Analysis directives: 
.TRAN  0 100us 0 100n 
.OPTIONS ABSTOL= 1.0n
.OPTIONS CHGTOL= 0.01n
.OPTIONS RELTOL= 0.01
.OPTIONS VNTOL= 1.0m
.PROBE V(*) I(*) W(*) D(*) NOISE(*) 
.INC ".\trgen-SCHEMATIC1.net" 



**** INCLUDING trgen-SCHEMATIC1.net ****
* source TRGEN
R_R1         N00673 N01131  10k  
R_R2         N00673 N00637  8.2k  
R_R         N01131 N00756  1220  
C_C1         N00756 N00637  10n  
X_U3A         GND N00756 VCC+ VCC- N00637 TL082
V_V1         GND VCC- 12
X_U4A         N00673 GND VCC+ VCC- N01131 TL082
V_V3         VCC+ GND 12

**** RESUMING trgen-schematic1-bka.sim.cir ****
.END

**** 02/01/22 09:54:00 ********* PSpice 9.2 (Mar 2000) ******** ID# 1 ********

 ** Profile: "SCHEMATIC1-bka"  [ g:\hiast\4th year\second term\\trgen-schematic1-bka.sim ] 


 ****     Diode MODEL PARAMETERS


******************************************************************************




               X_U3A.dx        X_U3A.dy        X_U4A.dx        X_U4A.dy        
          IS  800.000000E-18  800.000000E-18  800.000000E-18  800.000000E-18 
          RS    1               1.000000E-03    1               1.000000E-03 
         CJO                   10.000000E-12                   10.000000E-12 


**** 02/01/22 09:54:00 ********* PSpice 9.2 (Mar 2000) ******** ID# 1 ********

 ** Profile: "SCHEMATIC1-bka"  [ g:\hiast\4th year\second term\\trgen-schematic1-bka.sim ] 


 ****     Junction FET MODEL PARAMETERS


******************************************************************************




               X_U3A.jx        X_U4A.jx        
               NJF             NJF             
         VTO   -1              -1            
        BETA  984.200000E-06  984.200000E-06 
          IS    2.500000E-12    2.500000E-12 


**** 02/01/22 09:54:00 ********* PSpice 9.2 (Mar 2000) ******** ID# 1 ********

 ** Profile: "SCHEMATIC1-bka"  [ g:\hiast\4th year\second term\\trgen-schematic1-bka.sim ] 


 ****     INITIAL TRANSIENT SOLUTION       TEMPERATURE =   27.000 DEG C


******************************************************************************



 NODE   VOLTAGE     NODE   VOLTAGE     NODE   VOLTAGE     NODE   VOLTAGE


(  GND)-32.64E+06  ( VCC+)-32.64E+06  ( VCC-)-32.64E+06  (N00637)-32.64E+06     

(N00673)-32.64E+06 (N00756)-32.64E+06 (N01131)-32.64E+06 (X_U3A.6)-21.80E-06    

(X_U3A.7)-32.64E+06                   (X_U3A.8)-32.64E+06                       

(X_U3A.9)    0.0000                   (X_U4A.6)-21.86E-06                       

(X_U4A.7)-32.64E+06                   (X_U4A.8)-32.64E+06                       

(X_U4A.9)    0.0000                   (X_U3A.10)-32.64E+06                      

(X_U3A.11)-32.64E+06                  (X_U3A.12)-32.64E+06                      

(X_U3A.53)-32.64E+06                  (X_U3A.54)-32.64E+06                      

(X_U3A.90)-912.7E-06                  (X_U3A.91)   50.0000                      

(X_U3A.92)  -50.0000                  (X_U3A.99)-32.64E+06                      

(X_U4A.10)-32.64E+06                  (X_U4A.11)-32.64E+06                      

(X_U4A.12)-32.64E+06                  (X_U4A.53)-32.64E+06                      

(X_U4A.54)-32.64E+06                  (X_U4A.90) 954.9E-06                      

(X_U4A.91)   50.0000                  (X_U4A.92)  -50.0000                      

(X_U4A.99)-32.64E+06                  




    VOLTAGE SOURCE CURRENTS
    NAME         CURRENT

    V_V1        -2.870E-03
    V_V3        -2.870E-03
    X_U3A.vb    -2.180E-10
    X_U3A.vc     1.050E-11
    X_U3A.ve     7.567E-07
    X_U3A.vlim  -9.127E-07
    X_U3A.vlp   -5.000E-11
    X_U3A.vln   -5.001E-11
    X_U4A.vb    -2.186E-10
    X_U4A.vc     1.050E-11
    X_U4A.ve     7.567E-07
    X_U4A.vlim   9.549E-07
    X_U4A.vlp   -5.000E-11
    X_U4A.vln   -5.001E-11

    TOTAL POWER DISSIPATION   6.89E-02  WATTS


ERROR -- Convergence problem in transient analysis at Time =  1.000E-09
         Time step =  1.863E-18, minimum allowable step size =  10.00E-18

  These voltages failed to converge:

    V(N00673)                 =   -33.20MV  \   -30.95MV
    V(N01131)                 =   -33.20MV  \   -30.95MV
    V(N00637)                 =   -33.20MV  \   -30.95MV
    V(N00756)                 =   -33.20MV  \   -30.95MV
    V(GND)                    =   -33.20MV  \   -30.95MV
    V(VCC-)                   =   -33.20MV  \   -30.95MV
    V(VCC+)                   =   -33.20MV  \   -30.95MV
    V(X_U3A.11)               =   -33.20MV  \   -30.95MV
    V(X_U3A.12)               =   -33.20MV  \   -30.95MV
    V(X_U3A.6)                =  -556.23KV  \    1.695MV
    V(X_U3A.7)                =   -33.20MV  \   -30.95MV
    V(X_U3A.10)               =   -33.20MV  \   -30.95MV
    V(X_U3A.99)               =   -33.20MV  \   -30.95MV
    V(X_U3A.53)               =   -33.20MV  \   -30.95MV
    V(X_U3A.54)               =   -33.20MV  \   -30.95MV
    V(X_U3A.8)                =   -33.20MV  \   -30.95MV
    V(X_U4A.11)               =   -33.20MV  \   -30.95MV
    V(X_U4A.12)               =   -33.20MV  \   -30.95MV
    V(X_U4A.6)                =  -556.22KV  \    1.695MV
    V(X_U4A.7)                =   -33.20MV  \   -30.95MV
    V(X_U4A.10)               =   -33.20MV  \   -30.95MV
    V(X_U4A.99)               =   -33.20MV  \   -30.95MV
    V(X_U4A.53)               =   -33.20MV  \   -30.95MV
    V(X_U4A.54)               =   -33.20MV  \   -30.95MV
    V(X_U4A.90)               =    -44.59V  \    -70.64V
    V(X_U4A.8)                =   -33.20MV  \   -30.95MV

  These supply currents failed to converge:

    I(X_U3A.egnd)             =  -265.21MA  \  -487.65MA
    I(X_U4A.egnd)             =     5.611A  \    -16.89A
    I(V_V1)                   =   -2.065mA  \   -2.319mA
    I(V_V3)                   =   -2.060mA  \   -2.321mA
    I(X_U3A.vb)               =    -73.57A  \    -78.04A
    I(X_U3A.vc)               =   -22.31mA  \   -34.80mA
    I(X_U3A.ve)               =    21.53mA  \    34.74mA
    I(X_U3A.vlp)              =    -3.380A  \    -72.37A
    I(X_U3A.vln)              =   -4.050nA  \   -3.311mA
    I(X_U4A.vb)               =    -5.562A  \     16.95A
    I(X_U4A.vc)               =    22.29mA  \    34.99mA
    I(X_U4A.ve)               =   -22.33mA  \   -35.29mA
    I(X_U4A.vlim)             =   -44.59mA  \   -70.64mA
    I(X_U4A.vln)              =    -6.428A  \     19.59A
    I(X_U3A.hlim)             =   -18.67uA  \   -3.311mA
    I(X_U4A.hlim)             =    -6.428A  \     19.59A

  These devices failed to converge:
    X_U3A.dlp X_U4A.dln X_U3A.fb  X_U4A.fb  

ERROR -- Discontinuing simulation due to convergence problem


  Last node voltages tried were:

 NODE   VOLTAGE     NODE   VOLTAGE     NODE   VOLTAGE     NODE   VOLTAGE


(  GND)-33.20E+06  ( VCC+)-33.20E+06  ( VCC-)-33.20E+06  (N00637)-33.20E+06     

(N00673)-33.20E+06 (N00756)-33.20E+06 (N01131)-33.20E+06 (X_U3A.6)-556.2E+03    

(X_U3A.7)-33.20E+06                   (X_U3A.8)-33.20E+06                       

(X_U3A.9)    0.0000                   (X_U4A.6)-556.2E+03                       

(X_U4A.7)-33.20E+06                   (X_U4A.8)-33.20E+06                       

(X_U4A.9)    0.0000                   (X_U3A.10)-33.20E+06                      

(X_U3A.11)-33.20E+06                  (X_U3A.12)-33.20E+06                      

(X_U3A.53)-33.20E+06                  (X_U3A.54)-33.20E+06                      

(X_U3A.90) 4000.0000                  (X_U3A.91)   50.0000                      

(X_U3A.92)  -50.0000                  (X_U3A.99)-33.20E+06                      

(X_U4A.10)-33.20E+06                  (X_U4A.11)-33.20E+06                      

(X_U4A.12)-33.20E+06                  (X_U4A.53)-33.20E+06                      

(X_U4A.54)-33.20E+06                  (X_U4A.90)  -44.5880                      

(X_U4A.91)   50.0000                  (X_U4A.92)  -50.0000                      

(X_U4A.99)-33.20E+06                  

